!-Generator IDFEditor 1.50
!-Option SortedOrder ViewInIPunits

!-NOTE: All comments with '!-' are ignored by the IDFEditor and are generated automatically.
!-      Use '!' comments if they need to be retained when using the IDFEditor.


!-   ===========  ALL OBJECTS IN CLASS: VERSION ===========

Version,
    8.9;                     !- Version Identifier


!-   ===========  ALL OBJECTS IN CLASS: SIMULATIONCONTROL ===========

SimulationControl,
    Yes,                     !- Do Zone Sizing Calculation
    No,                      !- Do System Sizing Calculation
    No,                      !- Do Plant Sizing Calculation
    Yes,                     !- Run Simulation for Sizing Periods
    Yes;                     !- Run Simulation for Weather File Run Periods


!-   ===========  ALL OBJECTS IN CLASS: BUILDING ===========

Building,
    Building 1,              !- Name
    ,                        !- North Axis {deg}
    ,                        !- Terrain
    ,                        !- Loads Convergence Tolerance Value
    ,                        !- Temperature Convergence Tolerance Value {deltaC}
    ,                        !- Solar Distribution
    ,                        !- Maximum Number of Warmup Days
    ;                        !- Minimum Number of Warmup Days


!-   ===========  ALL OBJECTS IN CLASS: SHADOWCALCULATION ===========

ShadowCalculation,
    AverageOverDaysInFrequency,  !- Calculation Method
    20,                      !- Calculation Frequency
    15000;                   !- Maximum Figures in Shadow Overlap Calculations


!-   ===========  ALL OBJECTS IN CLASS: HEATBALANCEALGORITHM ===========

HeatBalanceAlgorithm,
    ConductionTransferFunction,  !- Algorithm
    200;                     !- Surface Temperature Upper Limit {C}


!-   ===========  ALL OBJECTS IN CLASS: TIMESTEP ===========

Timestep,
    6;                       !- Number of Timesteps per Hour


!-   ===========  ALL OBJECTS IN CLASS: SITE:LOCATION ===========

Site:Location,
    Phoenix Sky Harbor Intl Ap,  !- Name
    33.45,                   !- Latitude {deg}
    -111.98,                 !- Longitude {deg}
    -7,                      !- Time Zone {hr}
    337;                     !- Elevation {m}


!-   ===========  ALL OBJECTS IN CLASS: SIZINGPERIOD:DESIGNDAY ===========

SizingPeriod:DesignDay,
    Phoenix Sky Harbor Intl Ap Ann Clg .4% Condns DB=>MWB,  !- Name
    7,                       !- Month
    21,                      !- Day of Month
    SummerDesignDay,         !- Day Type
    43.4,                    !- Maximum Dry-Bulb Temperature {C}
    12,                      !- Daily Dry-Bulb Temperature Range {deltaC}
    DefaultMultipliers,      !- Dry-Bulb Temperature Range Modifier Type
    ,                        !- Dry-Bulb Temperature Range Modifier Day Schedule Name
    Wetbulb,                 !- Humidity Condition Type
    21.1,                    !- Wetbulb or DewPoint at Maximum Dry-Bulb {C}
    ,                        !- Humidity Condition Day Schedule Name
    ,                        !- Humidity Ratio at Maximum Dry-Bulb {kgWater/kgDryAir}
    ,                        !- Enthalpy at Maximum Dry-Bulb {J/kg}
    ,                        !- Daily Wet-Bulb Temperature Range {deltaC}
    97342,                   !- Barometric Pressure {Pa}
    4.1,                     !- Wind Speed {m/s}
    260,                     !- Wind Direction {deg}
    No,                      !- Rain Indicator
    No,                      !- Snow Indicator
    No,                      !- Daylight Saving Time Indicator
    ASHRAETau,               !- Solar Model Indicator
    ,                        !- Beam Solar Day Schedule Name
    ,                        !- Diffuse Solar Day Schedule Name
    0.588,                   !- ASHRAE Clear Sky Optical Depth for Beam Irradiance (taub) {dimensionless}
    1.653;                   !- ASHRAE Clear Sky Optical Depth for Diffuse Irradiance (taud) {dimensionless}

SizingPeriod:DesignDay,
    Phoenix Sky Harbor Intl Ap Ann Clg .4% Condns DP=>MDB,  !- Name
    7,                       !- Month
    21,                      !- Day of Month
    SummerDesignDay,         !- Day Type
    28.1,                    !- Maximum Dry-Bulb Temperature {C}
    12,                      !- Daily Dry-Bulb Temperature Range {deltaC}
    DefaultMultipliers,      !- Dry-Bulb Temperature Range Modifier Type
    ,                        !- Dry-Bulb Temperature Range Modifier Day Schedule Name
    Dewpoint,                !- Humidity Condition Type
    21.8,                    !- Wetbulb or DewPoint at Maximum Dry-Bulb {C}
    ,                        !- Humidity Condition Day Schedule Name
    ,                        !- Humidity Ratio at Maximum Dry-Bulb {kgWater/kgDryAir}
    ,                        !- Enthalpy at Maximum Dry-Bulb {J/kg}
    ,                        !- Daily Wet-Bulb Temperature Range {deltaC}
    97342,                   !- Barometric Pressure {Pa}
    4.1,                     !- Wind Speed {m/s}
    260,                     !- Wind Direction {deg}
    No,                      !- Rain Indicator
    No,                      !- Snow Indicator
    No,                      !- Daylight Saving Time Indicator
    ASHRAETau,               !- Solar Model Indicator
    ,                        !- Beam Solar Day Schedule Name
    ,                        !- Diffuse Solar Day Schedule Name
    0.588,                   !- ASHRAE Clear Sky Optical Depth for Beam Irradiance (taub) {dimensionless}
    1.653;                   !- ASHRAE Clear Sky Optical Depth for Diffuse Irradiance (taud) {dimensionless}

SizingPeriod:DesignDay,
    Phoenix Sky Harbor Intl Ap Ann Clg .4% Condns Enth=>MDB,  !- Name
    7,                       !- Month
    21,                      !- Day of Month
    SummerDesignDay,         !- Day Type
    35.3,                    !- Maximum Dry-Bulb Temperature {C}
    12,                      !- Daily Dry-Bulb Temperature Range {deltaC}
    DefaultMultipliers,      !- Dry-Bulb Temperature Range Modifier Type
    ,                        !- Dry-Bulb Temperature Range Modifier Day Schedule Name
    Enthalpy,                !- Humidity Condition Type
    ,                        !- Wetbulb or DewPoint at Maximum Dry-Bulb {C}
    ,                        !- Humidity Condition Day Schedule Name
    ,                        !- Humidity Ratio at Maximum Dry-Bulb {kgWater/kgDryAir}
    75600,                   !- Enthalpy at Maximum Dry-Bulb {J/kg}
    ,                        !- Daily Wet-Bulb Temperature Range {deltaC}
    97342,                   !- Barometric Pressure {Pa}
    4.1,                     !- Wind Speed {m/s}
    260,                     !- Wind Direction {deg}
    No,                      !- Rain Indicator
    No,                      !- Snow Indicator
    No,                      !- Daylight Saving Time Indicator
    ASHRAETau,               !- Solar Model Indicator
    ,                        !- Beam Solar Day Schedule Name
    ,                        !- Diffuse Solar Day Schedule Name
    0.588,                   !- ASHRAE Clear Sky Optical Depth for Beam Irradiance (taub) {dimensionless}
    1.653;                   !- ASHRAE Clear Sky Optical Depth for Diffuse Irradiance (taud) {dimensionless}

SizingPeriod:DesignDay,
    Phoenix Sky Harbor Intl Ap Ann Clg .4% Condns WB=>MDB,  !- Name
    7,                       !- Month
    21,                      !- Day of Month
    SummerDesignDay,         !- Day Type
    35.8,                    !- Maximum Dry-Bulb Temperature {C}
    12,                      !- Daily Dry-Bulb Temperature Range {deltaC}
    DefaultMultipliers,      !- Dry-Bulb Temperature Range Modifier Type
    ,                        !- Dry-Bulb Temperature Range Modifier Day Schedule Name
    Wetbulb,                 !- Humidity Condition Type
    24.5,                    !- Wetbulb or DewPoint at Maximum Dry-Bulb {C}
    ,                        !- Humidity Condition Day Schedule Name
    ,                        !- Humidity Ratio at Maximum Dry-Bulb {kgWater/kgDryAir}
    ,                        !- Enthalpy at Maximum Dry-Bulb {J/kg}
    ,                        !- Daily Wet-Bulb Temperature Range {deltaC}
    97342,                   !- Barometric Pressure {Pa}
    4.1,                     !- Wind Speed {m/s}
    260,                     !- Wind Direction {deg}
    No,                      !- Rain Indicator
    No,                      !- Snow Indicator
    No,                      !- Daylight Saving Time Indicator
    ASHRAETau,               !- Solar Model Indicator
    ,                        !- Beam Solar Day Schedule Name
    ,                        !- Diffuse Solar Day Schedule Name
    0.588,                   !- ASHRAE Clear Sky Optical Depth for Beam Irradiance (taub) {dimensionless}
    1.653;                   !- ASHRAE Clear Sky Optical Depth for Diffuse Irradiance (taud) {dimensionless}

SizingPeriod:DesignDay,
    Phoenix Sky Harbor Intl Ap Ann Htg 99.6% Condns DB,  !- Name
    12,                      !- Month
    21,                      !- Day of Month
    WinterDesignDay,         !- Day Type
    3.7,                     !- Maximum Dry-Bulb Temperature {C}
    0,                       !- Daily Dry-Bulb Temperature Range {deltaC}
    DefaultMultipliers,      !- Dry-Bulb Temperature Range Modifier Type
    ,                        !- Dry-Bulb Temperature Range Modifier Day Schedule Name
    Wetbulb,                 !- Humidity Condition Type
    3.7,                     !- Wetbulb or DewPoint at Maximum Dry-Bulb {C}
    ,                        !- Humidity Condition Day Schedule Name
    ,                        !- Humidity Ratio at Maximum Dry-Bulb {kgWater/kgDryAir}
    ,                        !- Enthalpy at Maximum Dry-Bulb {J/kg}
    ,                        !- Daily Wet-Bulb Temperature Range {deltaC}
    97342,                   !- Barometric Pressure {Pa}
    1.7,                     !- Wind Speed {m/s}
    100,                     !- Wind Direction {deg}
    No,                      !- Rain Indicator
    No,                      !- Snow Indicator
    No,                      !- Daylight Saving Time Indicator
    ASHRAEClearSky,          !- Solar Model Indicator
    ,                        !- Beam Solar Day Schedule Name
    ,                        !- Diffuse Solar Day Schedule Name
    ,                        !- ASHRAE Clear Sky Optical Depth for Beam Irradiance (taub) {dimensionless}
    ,                        !- ASHRAE Clear Sky Optical Depth for Diffuse Irradiance (taud) {dimensionless}
    0;                       !- Sky Clearness

SizingPeriod:DesignDay,
    Phoenix Sky Harbor Intl Ap Ann Htg Wind 99.6% Condns WS=>MCDB,  !- Name
    12,                      !- Month
    21,                      !- Day of Month
    WinterDesignDay,         !- Day Type
    14.8,                    !- Maximum Dry-Bulb Temperature {C}
    0,                       !- Daily Dry-Bulb Temperature Range {deltaC}
    DefaultMultipliers,      !- Dry-Bulb Temperature Range Modifier Type
    ,                        !- Dry-Bulb Temperature Range Modifier Day Schedule Name
    Wetbulb,                 !- Humidity Condition Type
    14.8,                    !- Wetbulb or DewPoint at Maximum Dry-Bulb {C}
    ,                        !- Humidity Condition Day Schedule Name
    ,                        !- Humidity Ratio at Maximum Dry-Bulb {kgWater/kgDryAir}
    ,                        !- Enthalpy at Maximum Dry-Bulb {J/kg}
    ,                        !- Daily Wet-Bulb Temperature Range {deltaC}
    97342,                   !- Barometric Pressure {Pa}
    8.2,                     !- Wind Speed {m/s}
    100,                     !- Wind Direction {deg}
    No,                      !- Rain Indicator
    No,                      !- Snow Indicator
    No,                      !- Daylight Saving Time Indicator
    ASHRAEClearSky,          !- Solar Model Indicator
    ,                        !- Beam Solar Day Schedule Name
    ,                        !- Diffuse Solar Day Schedule Name
    ,                        !- ASHRAE Clear Sky Optical Depth for Beam Irradiance (taub) {dimensionless}
    ,                        !- ASHRAE Clear Sky Optical Depth for Diffuse Irradiance (taud) {dimensionless}
    0;                       !- Sky Clearness

SizingPeriod:DesignDay,
    Phoenix Sky Harbor Intl Ap Ann Hum_n 99.6% Condns DP=>MCDB,  !- Name
    12,                      !- Month
    21,                      !- Day of Month
    WinterDesignDay,         !- Day Type
    15.4,                    !- Maximum Dry-Bulb Temperature {C}
    0,                       !- Daily Dry-Bulb Temperature Range {deltaC}
    DefaultMultipliers,      !- Dry-Bulb Temperature Range Modifier Type
    ,                        !- Dry-Bulb Temperature Range Modifier Day Schedule Name
    Dewpoint,                !- Humidity Condition Type
    -14.5,                   !- Wetbulb or DewPoint at Maximum Dry-Bulb {C}
    ,                        !- Humidity Condition Day Schedule Name
    ,                        !- Humidity Ratio at Maximum Dry-Bulb {kgWater/kgDryAir}
    ,                        !- Enthalpy at Maximum Dry-Bulb {J/kg}
    ,                        !- Daily Wet-Bulb Temperature Range {deltaC}
    97342,                   !- Barometric Pressure {Pa}
    1.7,                     !- Wind Speed {m/s}
    100,                     !- Wind Direction {deg}
    No,                      !- Rain Indicator
    No,                      !- Snow Indicator
    No,                      !- Daylight Saving Time Indicator
    ASHRAEClearSky,          !- Solar Model Indicator
    ,                        !- Beam Solar Day Schedule Name
    ,                        !- Diffuse Solar Day Schedule Name
    ,                        !- ASHRAE Clear Sky Optical Depth for Beam Irradiance (taub) {dimensionless}
    ,                        !- ASHRAE Clear Sky Optical Depth for Diffuse Irradiance (taud) {dimensionless}
    0;                       !- Sky Clearness


!-   ===========  ALL OBJECTS IN CLASS: RUNPERIOD ===========

RunPeriod,
    Run Period 1,            !- Name
    1,                       !- Begin Month
    1,                       !- Begin Day of Month
    12,                      !- End Month
    31,                      !- End Day of Month
    Sunday,                  !- Day of Week for Start Day
    No,                      !- Use Weather File Holidays and Special Days
    No,                      !- Use Weather File Daylight Saving Period
    No,                      !- Apply Weekend Holiday Rule
    Yes,                     !- Use Weather File Rain Indicators
    Yes,                     !- Use Weather File Snow Indicators
    1;                       !- Number of Times Runperiod to be Repeated


!-   ===========  ALL OBJECTS IN CLASS: SCHEDULETYPELIMITS ===========

ScheduleTypeLimits,
    Large-1window Thermostat Schedule Type Limits,  !- Name
    0,                       !- Lower Limit Value
    4,                       !- Upper Limit Value
    DISCRETE;                !- Numeric Type

ScheduleTypeLimits,
    Temperature 42,          !- Name
    ,                        !- Lower Limit Value
    ,                        !- Upper Limit Value
    Continuous,              !- Numeric Type
    temperature;             !- Unit Type

ScheduleTypeLimits,
    Temperature 35,          !- Name
    ,                        !- Lower Limit Value
    ,                        !- Upper Limit Value
    Continuous,              !- Numeric Type
    temperature;             !- Unit Type

ScheduleTypeLimits,
    Percent,                 !- Name
    0,                       !- Lower Limit Value
    100,                     !- Upper Limit Value
    Continuous,              !- Numeric Type
    percent;                 !- Unit Type

ScheduleTypeLimits,
    ActivityLevel,           !- Name
    0,                       !- Lower Limit Value
    ,                        !- Upper Limit Value
    Continuous,              !- Numeric Type
    activitylevel;           !- Unit Type

ScheduleTypeLimits,
    ActivityLevel 12,        !- Name
    0,                       !- Lower Limit Value
    ,                        !- Upper Limit Value
    Continuous,              !- Numeric Type
    activitylevel;           !- Unit Type

ScheduleTypeLimits,
    ActivityLevel 13,        !- Name
    0,                       !- Lower Limit Value
    ,                        !- Upper Limit Value
    Continuous,              !- Numeric Type
    activitylevel;           !- Unit Type

ScheduleTypeLimits,
    ActivityLevel 5,         !- Name
    0,                       !- Lower Limit Value
    ,                        !- Upper Limit Value
    Continuous,              !- Numeric Type
    activitylevel;           !- Unit Type

ScheduleTypeLimits,
    Fraction,                !- Name
    0,                       !- Lower Limit Value
    1,                       !- Upper Limit Value
    CONTINUOUS;              !- Numeric Type

ScheduleTypeLimits,
    Fractional,              !- Name
    0,                       !- Lower Limit Value
    1,                       !- Upper Limit Value
    Continuous;              !- Numeric Type

ScheduleTypeLimits,
    Temperature 11,          !- Name
    ,                        !- Lower Limit Value
    ,                        !- Upper Limit Value
    Continuous,              !- Numeric Type
    temperature;             !- Unit Type

ScheduleTypeLimits,
    Temperature 3,           !- Name
    ,                        !- Lower Limit Value
    ,                        !- Upper Limit Value
    Continuous,              !- Numeric Type
    temperature;             !- Unit Type

ScheduleTypeLimits,
    Temperature 36,          !- Name
    ,                        !- Lower Limit Value
    ,                        !- Upper Limit Value
    Continuous,              !- Numeric Type
    temperature;             !- Unit Type

ScheduleTypeLimits,
    Temperature 37,          !- Name
    ,                        !- Lower Limit Value
    ,                        !- Upper Limit Value
    Continuous,              !- Numeric Type
    temperature;             !- Unit Type

ScheduleTypeLimits,
    Temperature 4,           !- Name
    ,                        !- Lower Limit Value
    ,                        !- Upper Limit Value
    Continuous,              !- Numeric Type
    temperature;             !- Unit Type

ScheduleTypeLimits,
    Temperature 5,           !- Name
    ,                        !- Lower Limit Value
    ,                        !- Upper Limit Value
    Continuous,              !- Numeric Type
    temperature;             !- Unit Type


!-   ===========  ALL OBJECTS IN CLASS: SCHEDULE:DAY:INTERVAL ===========

Schedule:Day:Interval,
    SmallHotel HtgSetp Default Schedule,  !- Name
    Temperature 42,          !- Schedule Type Limits Name
    No,                      !- Interpolate to Timestep
    24:00,                   !- Time 1 {hh:mm}
    21;                      !- Value Until Time 1

Schedule:Day:Interval,
    SmallHotel HtgSetp Summer Design Day,  !- Name
    Temperature 42,          !- Schedule Type Limits Name
    No,                      !- Interpolate to Timestep
    24:00,                   !- Time 1 {hh:mm}
    21;                      !- Value Until Time 1

Schedule:Day:Interval,
    SmallHotel HtgSetp Winter Design Day,  !- Name
    Temperature 42,          !- Schedule Type Limits Name
    No,                      !- Interpolate to Timestep
    24:00,                   !- Time 1 {hh:mm}
    21;                      !- Value Until Time 1

Schedule:Day:Interval,
    SmallHotel ClgSetp Default Schedule,  !- Name
    Temperature 35,          !- Schedule Type Limits Name
    No,                      !- Interpolate to Timestep
    24:00,                   !- Time 1 {hh:mm}
    24;                      !- Value Until Time 1

Schedule:Day:Interval,
    SmallHotel ClgSetp Summer Design Day,  !- Name
    Temperature 35,          !- Schedule Type Limits Name
    No,                      !- Interpolate to Timestep
    24:00,                   !- Time 1 {hh:mm}
    24;                      !- Value Until Time 1

Schedule:Day:Interval,
    SmallHotel ClgSetp Winter Design Day,  !- Name
    Temperature 35,          !- Schedule Type Limits Name
    No,                      !- Interpolate to Timestep
    24:00,                   !- Time 1 {hh:mm}
    24;                      !- Value Until Time 1

Schedule:Day:Interval,
    Schedule Day 443,        !- Name
    Percent,                 !- Schedule Type Limits Name
    No,                      !- Interpolate to Timestep
    24:00,                   !- Time 1 {hh:mm}
    50;                      !- Value Until Time 1

Schedule:Day:Interval,
    Large Office ClgSetp Default Schedule,  !- Name
    Temperature 5,           !- Schedule Type Limits Name
    No,                      !- Interpolate to Timestep
    06:00,                   !- Time 1 {hh:mm}
    26.7,                    !- Value Until Time 1
    22:00,                   !- Time 2 {hh:mm}
    24,                      !- Value Until Time 2
    24:00,                   !- Time 3 {hh:mm}
    26.7;                    !- Value Until Time 3

Schedule:Day:Interval,
    Large Office ClgSetp Rule 1 Day Schedule,  !- Name
    Temperature 5,           !- Schedule Type Limits Name
    No,                      !- Interpolate to Timestep
    24:00,                   !- Time 1 {hh:mm}
    26.7;                    !- Value Until Time 1

Schedule:Day:Interval,
    Large Office ClgSetp Rule 2 Day Schedule,  !- Name
    Temperature 5,           !- Schedule Type Limits Name
    No,                      !- Interpolate to Timestep
    06:00,                   !- Time 1 {hh:mm}
    26.7,                    !- Value Until Time 1
    18:00,                   !- Time 2 {hh:mm}
    24,                      !- Value Until Time 2
    24:00,                   !- Time 3 {hh:mm}
    26.7;                    !- Value Until Time 3

Schedule:Day:Interval,
    Large Office ClgSetp Summer Design Day,  !- Name
    Temperature 5,           !- Schedule Type Limits Name
    No,                      !- Interpolate to Timestep
    06:00,                   !- Time 1 {hh:mm}
    26.7,                    !- Value Until Time 1
    22:00,                   !- Time 2 {hh:mm}
    24,                      !- Value Until Time 2
    24:00,                   !- Time 3 {hh:mm}
    26.7;                    !- Value Until Time 3

Schedule:Day:Interval,
    Large Office ClgSetp Winter Design Day,  !- Name
    Temperature 5,           !- Schedule Type Limits Name
    No,                      !- Interpolate to Timestep
    24:00,                   !- Time 1 {hh:mm}
    26.7;                    !- Value Until Time 1

Schedule:Day:Interval,
    Large Office HtgSetp Default Schedule,  !- Name
    Temperature 3,           !- Schedule Type Limits Name
    No,                      !- Interpolate to Timestep
    06:00,                   !- Time 1 {hh:mm}
    15.6,                    !- Value Until Time 1
    22:00,                   !- Time 2 {hh:mm}
    21,                      !- Value Until Time 2
    24:00,                   !- Time 3 {hh:mm}
    15.6;                    !- Value Until Time 3

Schedule:Day:Interval,
    Large Office HtgSetp Rule 1 Day Schedule,  !- Name
    Temperature 3,           !- Schedule Type Limits Name
    No,                      !- Interpolate to Timestep
    24:00,                   !- Time 1 {hh:mm}
    15.6;                    !- Value Until Time 1

Schedule:Day:Interval,
    Large Office HtgSetp Rule 2 Day Schedule,  !- Name
    Temperature 3,           !- Schedule Type Limits Name
    No,                      !- Interpolate to Timestep
    06:00,                   !- Time 1 {hh:mm}
    15.6,                    !- Value Until Time 1
    18:00,                   !- Time 2 {hh:mm}
    21,                      !- Value Until Time 2
    24:00,                   !- Time 3 {hh:mm}
    15.6;                    !- Value Until Time 3

Schedule:Day:Interval,
    Large Office HtgSetp Summer Design Day,  !- Name
    Temperature 3,           !- Schedule Type Limits Name
    No,                      !- Interpolate to Timestep
    24:00,                   !- Time 1 {hh:mm}
    15.6;                    !- Value Until Time 1

Schedule:Day:Interval,
    Large Office HtgSetp Winter Design Day,  !- Name
    Temperature 3,           !- Schedule Type Limits Name
    No,                      !- Interpolate to Timestep
    24:00,                   !- Time 1 {hh:mm}
    21;                      !- Value Until Time 1

Schedule:Day:Interval,
    Medium Office ClgSetp Default Schedule,  !- Name
    Temperature 37,          !- Schedule Type Limits Name
    No,                      !- Interpolate to Timestep
    06:00,                   !- Time 1 {hh:mm}
    26.7,                    !- Value Until Time 1
    22:00,                   !- Time 2 {hh:mm}
    24,                      !- Value Until Time 2
    24:00,                   !- Time 3 {hh:mm}
    26.7;                    !- Value Until Time 3

Schedule:Day:Interval,
    Medium Office ClgSetp Rule 1 Day Schedule,  !- Name
    Temperature 37,          !- Schedule Type Limits Name
    No,                      !- Interpolate to Timestep
    24:00,                   !- Time 1 {hh:mm}
    26.7;                    !- Value Until Time 1

Schedule:Day:Interval,
    Medium Office ClgSetp Rule 2 Day Schedule,  !- Name
    Temperature 37,          !- Schedule Type Limits Name
    No,                      !- Interpolate to Timestep
    06:00,                   !- Time 1 {hh:mm}
    26.7,                    !- Value Until Time 1
    18:00,                   !- Time 2 {hh:mm}
    24,                      !- Value Until Time 2
    24:00,                   !- Time 3 {hh:mm}
    26.7;                    !- Value Until Time 3

Schedule:Day:Interval,
    Medium Office ClgSetp Summer Design Day,  !- Name
    Temperature 37,          !- Schedule Type Limits Name
    No,                      !- Interpolate to Timestep
    06:00,                   !- Time 1 {hh:mm}
    26.7,                    !- Value Until Time 1
    22:00,                   !- Time 2 {hh:mm}
    24,                      !- Value Until Time 2
    24:00,                   !- Time 3 {hh:mm}
    26.7;                    !- Value Until Time 3

Schedule:Day:Interval,
    Medium Office ClgSetp Winter Design Day,  !- Name
    Temperature 37,          !- Schedule Type Limits Name
    No,                      !- Interpolate to Timestep
    24:00,                   !- Time 1 {hh:mm}
    26.7;                    !- Value Until Time 1

Schedule:Day:Interval,
    Medium Office HtgSetp Default Schedule,  !- Name
    Temperature 36,          !- Schedule Type Limits Name
    No,                      !- Interpolate to Timestep
    06:00,                   !- Time 1 {hh:mm}
    15.6,                    !- Value Until Time 1
    22:00,                   !- Time 2 {hh:mm}
    21,                      !- Value Until Time 2
    24:00,                   !- Time 3 {hh:mm}
    15.6;                    !- Value Until Time 3

Schedule:Day:Interval,
    Medium Office HtgSetp Rule 1 Day Schedule,  !- Name
    Temperature 36,          !- Schedule Type Limits Name
    No,                      !- Interpolate to Timestep
    24:00,                   !- Time 1 {hh:mm}
    15.6;                    !- Value Until Time 1

Schedule:Day:Interval,
    Medium Office HtgSetp Rule 2 Day Schedule,  !- Name
    Temperature 36,          !- Schedule Type Limits Name
    No,                      !- Interpolate to Timestep
    06:00,                   !- Time 1 {hh:mm}
    15.6,                    !- Value Until Time 1
    18:00,                   !- Time 2 {hh:mm}
    21,                      !- Value Until Time 2
    24:00,                   !- Time 3 {hh:mm}
    15.6;                    !- Value Until Time 3

Schedule:Day:Interval,
    Medium Office HtgSetp Summer Design Day,  !- Name
    Temperature 36,          !- Schedule Type Limits Name
    No,                      !- Interpolate to Timestep
    24:00,                   !- Time 1 {hh:mm}
    15.6;                    !- Value Until Time 1

Schedule:Day:Interval,
    Medium Office HtgSetp Winter Design Day,  !- Name
    Temperature 36,          !- Schedule Type Limits Name
    No,                      !- Interpolate to Timestep
    24:00,                   !- Time 1 {hh:mm}
    21;                      !- Value Until Time 1

Schedule:Day:Interval,
    Small Office ClgSetp Default Schedule,  !- Name
    Temperature 4,           !- Schedule Type Limits Name
    No,                      !- Interpolate to Timestep
    06:00,                   !- Time 1 {hh:mm}
    26.7,                    !- Value Until Time 1
    22:00,                   !- Time 2 {hh:mm}
    24,                      !- Value Until Time 2
    24:00,                   !- Time 3 {hh:mm}
    26.7;                    !- Value Until Time 3

Schedule:Day:Interval,
    Small Office ClgSetp Rule 1 Day Schedule,  !- Name
    Temperature 4,           !- Schedule Type Limits Name
    No,                      !- Interpolate to Timestep
    24:00,                   !- Time 1 {hh:mm}
    26.7;                    !- Value Until Time 1

Schedule:Day:Interval,
    Small Office ClgSetp Rule 2 Day Schedule,  !- Name
    Temperature 4,           !- Schedule Type Limits Name
    No,                      !- Interpolate to Timestep
    06:00,                   !- Time 1 {hh:mm}
    26.7,                    !- Value Until Time 1
    18:00,                   !- Time 2 {hh:mm}
    24,                      !- Value Until Time 2
    24:00,                   !- Time 3 {hh:mm}
    26.7;                    !- Value Until Time 3

Schedule:Day:Interval,
    Small Office ClgSetp Summer Design Day,  !- Name
    Temperature 4,           !- Schedule Type Limits Name
    No,                      !- Interpolate to Timestep